$DATA1 SOURCE='PrimeSim HSPICE' VERSION='U-2023.03-SP2 linux6' PARAM_COUNT=0
.TITLE '* corner.sp'
 tpdr             tpdf             tpd              trise           
 tfall            temper           alter#          
  1.368e-11        1.320e-11        1.344e-11        1.255e-11      
  9.107e-12         25.0000        3               
