$DATA1 SOURCE='PrimeSim HSPICE' VERSION='U-2023.03-SP2 linux6' PARAM_COUNT=0
.TITLE '* corner.sp'
 tpdr             tpdf             tpd              trise           
 tfall            temper           alter#          
  1.688e-11        1.795e-11        1.742e-11        1.484e-11      
  1.275e-11         25.0000        5               
