$DATA1 SOURCE='PrimeSim HSPICE' VERSION='U-2023.03-SP2 linux6' PARAM_COUNT=0
.TITLE '* corner.sp'
 tpdr             tpdf             tpd              trise           
 tfall            temper           alter#          
  1.762e-11        1.619e-11        1.691e-11        1.568e-11      
  1.118e-11         25.0000        1               
