$DATA1 SOURCE='PrimeSim HSPICE' VERSION='U-2023.03-SP2 linux6' PARAM_COUNT=0
.TITLE '* corner.sp'
 tpdr             tpdf             tpd              trise           
 tfall            temper           alter#          
  2.174e-11        2.000e-11        2.087e-11        2.013e-11      
  1.429e-11         25.0000        4               
